<?xml version="1.0" encoding="UTF-8"?>

<!-- generated on 11/27/19 17:09:47 by Eclipse SUMO polyconvert Version 1.3.1
<configuration xmlns:xsi="http://www.w3.org/2001/XMLSchema-instance" xsi:noNamespaceSchemaLocation="http://sumo.dlr.de/xsd/polyconvertConfiguration.xsd">

    <input>
        <net-file value="osm.net.xml"/>
        <osm-files value="osm_bbox.osm.xml"/>
        <osm.keep-full-type value="true"/>
        <type-file value="C:\Program%20Files%20(x86)\SUMO\data\typemap\osmPolyconvert.typ.xml"/>
    </input>

    <output>
        <output-file value="osm.poly.xml"/>
    </output>

    <processing>
        <poi-layer-offset value="5"/>
    </processing>

    <report>
        <verbose value="true"/>
    </report>

</configuration>
-->

<additional xmlns:xsi="http://www.w3.org/2001/XMLSchema-instance" xsi:noNamespaceSchemaLocation="http://sumo.dlr.de/xsd/additional_file.xsd">
    <location netOffset="-283688.12,-5522745.03" convBoundary="0.00,-166.21,2895.23,1815.24" origBoundary="23.992449,49.817048,24.032356,49.834803" projParameter="+proj=utm +zone=35 +ellps=WGS84 +datum=WGS84 +units=m +no_defs"/>

    <poly id="146277019" type="building.public" color="255,230,230" fill="1" layer="-1.00" shape="2210.135029,1037.328359 2230.869560,1029.356935 2229.031664,1024.609303 2231.415022,1023.690745 2229.664614,1019.151168 2225.904826,1020.592012 2224.202856,1016.184109 2207.880321,1022.454980 2209.228812,1025.941740 2204.504363,1027.754930 2206.422579,1032.710893 2208.103780,1032.065158 2210.135029,1037.328359"/>
    <poly id="148359366" type="building.dormitory" color="255,230,230" fill="1" layer="-1.00" shape="1539.684106,518.305543 1547.058206,531.460605 1614.258871,494.024721 1606.884457,480.858454 1539.684106,518.305543"/>
    <poly id="148359368" type="amenity.restaurant" color="237,199,199" fill="1" layer="-1.00" shape="1365.347534,757.330066 1351.681944,752.030261 1340.095990,781.706230 1353.761965,787.017120 1365.347534,757.330066"/>
    <poly id="148359368#1" type="building.yes" color="255,230,230" fill="1" layer="-1.00" shape="1365.347534,757.330066 1351.681944,752.030261 1340.095990,781.706230 1353.761965,787.017120 1365.347534,757.330066"/>
    <poly id="148359374" type="building.apartments" color="255,230,230" fill="1" layer="-1.00" shape="1567.544258,914.986277 1557.188738,923.871433 1582.754931,953.468907 1593.102794,944.572970 1567.544258,914.986277"/>
    <poly id="148359375" type="building.yes" color="255,230,230" fill="1" layer="-1.00" shape="1311.865808,944.231929 1301.246453,953.172670 1314.005400,968.250128 1324.624742,959.309412 1311.865808,944.231929"/>
    <poly id="148359379" type="building.apartments" color="255,230,230" fill="1" layer="-1.00" shape="1592.376657,895.448597 1582.628154,903.663779 1607.296192,932.773898 1617.044672,924.558759 1592.376657,895.448597"/>
    <poly id="148359381" type="building.dormitory" color="255,230,230" fill="1" layer="-1.00" shape="1512.029173,520.743844 1473.518321,588.544273 1486.524126,595.896962 1525.034629,528.085512 1512.029173,520.743844"/>
    <poly id="148359383" type="building.apartments" color="255,230,230" fill="1" layer="-1.00" shape="1616.136806,809.232217 1582.314142,751.206406 1567.629151,759.718527 1601.451936,817.744249 1616.136806,809.232217"/>
    <poly id="148359386" type="building.apartments" color="255,230,230" fill="1" layer="-1.00" shape="1642.302437,853.691242 1631.446891,860.336112 1651.708742,893.284827 1662.564682,886.651112 1642.302437,853.691242"/>
    <poly id="148359387" type="building.yes" color="255,230,230" fill="1" layer="-1.00" shape="1324.676854,912.603178 1373.455718,968.884112 1383.607212,960.129182 1334.835582,903.847870 1324.676854,912.603178"/>
    <poly id="148359388" type="building.dormitory" color="255,230,230" fill="1" layer="-1.00" shape="1417.850821,820.654968 1429.546033,834.706326 1438.693673,827.138286 1485.318034,788.572756 1473.622445,774.510163 1417.850821,820.654968"/>
    <poly id="148359389" type="building.apartments" color="255,230,230" fill="1" layer="-1.00" shape="1641.716775,904.972036 1616.503074,875.360247 1607.209056,883.234405 1632.422778,912.846152 1641.716775,904.972036"/>
    <poly id="148359391" type="building.apartments" color="255,230,230" fill="1" layer="-1.00" shape="1566.613367,839.406308 1532.261884,780.411000 1517.738894,788.827744 1552.090498,847.822963 1566.613367,839.406308"/>
    <poly id="148359395" type="building.yes" color="255,230,230" fill="1" layer="-1.00" shape="1324.385235,831.108003 1336.977132,835.314972 1349.138973,799.136436 1336.547006,794.929437 1324.385235,831.108003"/>
    <poly id="148359396" type="building.apartments" color="255,230,230" fill="1" layer="-1.00" shape="1632.831959,840.508281 1621.378348,819.310483 1608.023682,827.223967 1613.137222,837.162593 1582.736850,861.753882 1570.370020,847.283661 1559.212830,855.755424 1581.444739,882.824959 1632.831959,840.508281"/>
    <poly id="148359397" type="building.dormitory" color="255,230,230" fill="1" layer="-1.00" shape="1410.239100,684.342142 1451.721953,612.358999 1438.947581,605.030564 1410.096076,655.111872 1397.465267,677.024924 1399.897739,678.419763 1402.499594,679.908048 1366.844887,741.783940 1380.171250,749.413038 1415.819295,687.548638 1410.239100,684.342142"/>
    <poly id="148359398" type="building.apartments" color="255,230,230" fill="1" layer="-1.00" shape="1356.541804,667.490643 1403.943049,582.824006 1392.128129,576.259003 1344.726993,660.925747 1348.815182,663.200839 1356.541804,667.490643"/>
    <poly id="148359399" type="building.apartments" color="255,230,230" fill="1" layer="-1.00" shape="1555.755723,711.372435 1495.003386,761.789639 1507.703197,777.014632 1517.146861,769.279074 1513.110136,764.496829 1553.105027,731.607006 1563.573706,748.501973 1575.264563,741.667823 1555.755723,711.372435"/>
    <poly id="148359401" type="building.apartments" color="255,230,230" fill="1" layer="-1.00" shape="1302.901986,739.993132 1289.679538,757.532441 1297.460551,763.367512 1286.837231,777.451995 1299.087791,786.637955 1311.085984,770.728443 1302.926280,764.607866 1314.773878,748.893643 1302.901986,739.993132"/>
    <poly id="148359402" type="building.dormitory" color="255,230,230" fill="1" layer="-1.00" shape="1449.062240,850.728135 1472.019343,879.171132 1497.332650,910.537385 1523.615531,889.449687 1513.803571,877.282525 1497.968423,889.993428 1469.063962,854.183454 1484.438304,841.835973 1474.884406,830.003713 1449.062240,850.728135"/>
    <poly id="151169029" type="building.yes" color="255,230,230" fill="1" layer="-1.00" shape="1682.659245,425.925573 1675.916805,433.686787 1631.191263,485.133785 1643.440057,495.723383 1694.908052,436.515288 1682.659245,425.925573"/>
    <poly id="152356854" type="building.yes" color="255,230,230" fill="1" layer="-1.00" shape="2274.693178,1234.737123 2273.053485,1230.081806 2270.593058,1223.076600 2282.597235,1218.881208 2286.690140,1230.542025 2274.693178,1234.737123"/>
    <poly id="152356884" type="building.apartments" color="255,230,230" fill="1" layer="-1.00" shape="2270.593058,1223.076600 2265.615672,1208.912572 2260.103635,1193.255679 2280.169598,1186.235021 2284.172392,1197.621089 2276.110683,1200.446327 2277.547657,1204.530775 2282.597235,1218.881208 2270.593058,1223.076600"/>
    <poly id="152356887" type="building.yes" color="255,230,230" fill="1" layer="-1.00" shape="2265.554005,1174.914336 2280.539842,1169.631900 2275.608999,1155.733210 2260.623567,1161.026774 2265.554005,1174.914336"/>
    <poly id="152356890" type="building.yes" color="255,230,230" fill="1" layer="-1.00" shape="2280.539842,1169.631900 2295.518073,1164.338676 2290.594898,1150.450803 2275.608999,1155.733210 2280.539842,1169.631900"/>
    <poly id="152356894" type="building.yes" color="255,230,230" fill="1" layer="-1.00" shape="2295.518073,1164.338676 2303.131707,1161.653735 2310.510713,1159.044924 2305.580384,1145.157324 2290.594898,1150.450803 2295.518073,1164.338676"/>
    <poly id="152356900" type="building.yes" color="255,230,230" fill="1" layer="-1.00" shape="2315.457833,1234.999217 2309.178861,1237.196937 2295.854092,1241.867793 2291.306889,1228.922438 2310.911116,1222.064962 2315.457833,1234.999217"/>
    <poly id="152356904" type="building.yes" color="255,230,230" fill="1" layer="-1.00" shape="2295.854092,1241.867793 2287.557816,1244.769137 2279.240419,1247.682466 2274.693178,1234.737123 2286.690140,1230.542025 2291.306889,1228.922438 2295.854092,1241.867793"/>
    <poly id="152356906" type="building.apartments" color="255,230,230" fill="1" layer="-1.00" shape="2280.169598,1186.235021 2310.755216,1175.534552 2315.081770,1187.820697 2284.496660,1198.532259 2284.172392,1197.621089 2280.169598,1186.235021"/>
    <poly id="157741545" type="leisure.swimming_pool" color="207,245,201" fill="1" layer="-2.00" shape="1192.774789,895.823968 1188.921831,912.967233 1181.264653,947.029164 1204.562717,952.233403 1211.015564,923.541315 1216.080244,901.027976 1192.774789,895.823968"/>
    <poly id="157741546" type="amenity.college" color="237,199,199" fill="1" layer="-1.00" shape="553.189260,628.779064 540.365134,634.992871 535.726554,625.459165 563.558240,611.975537 573.650831,632.702621 575.127533,631.986628 583.752475,649.699671 582.339608,650.390840 592.431624,671.106841 564.797988,684.493341 560.081788,674.817993 572.488678,668.799067 568.596537,660.816394 567.374275,661.410868 564.894028,656.310882 566.095162,655.728386 559.558379,642.318313 558.435010,642.864295 556.057134,637.982881 557.364359,637.351602 553.189260,628.779064"/>
    <poly id="157741546#1" type="building.yes" color="255,230,230" fill="1" layer="-1.00" shape="553.189260,628.779064 540.365134,634.992871 535.726554,625.459165 563.558240,611.975537 573.650831,632.702621 575.127533,631.986628 583.752475,649.699671 582.339608,650.390840 592.431624,671.106841 564.797988,684.493341 560.081788,674.817993 572.488678,668.799067 568.596537,660.816394 567.374275,661.410868 564.894028,656.310882 566.095162,655.728386 559.558379,642.318313 558.435010,642.864295 556.057134,637.982881 557.364359,637.351602 553.189260,628.779064"/>
    <poly id="157741547" type="amenity.university" color="237,199,199" fill="1" layer="-1.00" shape="793.383884,736.612552 800.606945,755.673428 785.734651,761.278308 783.133174,754.401749 777.605624,756.482126 779.248667,760.825215 770.152069,764.250771 768.468618,759.797967 762.862866,761.903756 764.143194,765.281614 760.652354,766.601399 760.298153,765.669233 752.869225,768.471436 753.207711,769.370831 749.780706,770.665803 748.451443,767.145171 742.803449,769.274938 744.519241,773.815508 735.408302,777.241699 733.644910,772.591702 727.968607,774.733752 730.673416,781.851089 715.758999,787.480123 708.422979,768.123261 712.623567,766.541241 712.108191,765.181324 718.650239,762.715151 719.206461,764.195900 745.091062,754.442837 744.518685,752.918198 756.914649,748.247270 757.567382,749.980230 783.054747,740.376849 782.378671,738.600288 788.551734,736.271429 789.268655,738.168825 793.383884,736.612552"/>
    <poly id="157741547#1" type="building.yes" color="255,230,230" fill="1" layer="-1.00" shape="793.383884,736.612552 800.606945,755.673428 785.734651,761.278308 783.133174,754.401749 777.605624,756.482126 779.248667,760.825215 770.152069,764.250771 768.468618,759.797967 762.862866,761.903756 764.143194,765.281614 760.652354,766.601399 760.298153,765.669233 752.869225,768.471436 753.207711,769.370831 749.780706,770.665803 748.451443,767.145171 742.803449,769.274938 744.519241,773.815508 735.408302,777.241699 733.644910,772.591702 727.968607,774.733752 730.673416,781.851089 715.758999,787.480123 708.422979,768.123261 712.623567,766.541241 712.108191,765.181324 718.650239,762.715151 719.206461,764.195900 745.091062,754.442837 744.518685,752.918198 756.914649,748.247270 757.567382,749.980230 783.054747,740.376849 782.378671,738.600288 788.551734,736.271429 789.268655,738.168825 793.383884,736.612552"/>
    <poly id="157741548" type="building.yes" color="255,230,230" fill="1" layer="-1.00" shape="1386.273262,1028.225324 1374.679182,1038.908202 1375.987110,1040.281084 1402.901902,1069.367479 1414.509456,1058.661856 1400.143245,1043.180706 1386.273262,1028.225324"/>
    <poly id="157741550" type="building.yes" color="255,230,230" fill="1" layer="-1.00" shape="1442.264384,1101.598114 1425.854552,1072.793943 1414.647567,1079.097052 1417.626435,1084.444675 1448.672121,1138.928508 1459.898365,1132.569029 1455.344537,1124.567677 1455.975125,1121.959608 1456.531839,1119.666218 1451.658539,1118.101510 1445.362695,1107.052320 1446.321987,1106.546464 1444.780786,1103.657611 1443.364828,1101.019829 1442.264384,1101.598114"/>
    <poly id="157741551" type="building.apartments" color="255,230,230" fill="1" layer="-1.00" shape="1160.535487,1220.044233 1149.198584,1212.080205 1118.144566,1256.083641 1129.474244,1264.047890 1160.535487,1220.044233"/>
    <poly id="157741552" type="building.apartments" color="255,230,230" fill="1" layer="-1.00" shape="1095.314138,1230.286779 1085.364958,1239.034240 1110.669721,1267.638019 1120.618437,1258.879489 1118.144566,1256.083641 1095.314138,1230.286779"/>
    <poly id="157741553" type="building.yes" color="255,230,230" fill="1" layer="-1.00" shape="1470.744747,1148.469006 1494.603686,1172.467283 1518.837892,1196.851488 1503.795719,1211.724086 1494.612190,1202.482247 1501.125181,1196.043587 1471.750897,1166.475923 1464.815241,1173.332271 1455.286636,1163.747988 1470.744747,1148.469006"/>
    <poly id="157841516" type="building.apartments" color="255,230,230" fill="1" layer="-1.00" shape="1523.906451,951.127497 1531.605474,960.339517 1558.376025,938.119213 1550.676579,928.896039 1523.906451,951.127497"/>
    <poly id="157841517" type="building.apartments" color="255,230,230" fill="1" layer="-1.00" shape="1582.946293,984.834794 1674.819144,906.625820 1667.137245,897.657857 1575.271964,975.877788 1582.946293,984.834794"/>
    <poly id="157841518" type="building.dormitory" color="255,230,230" fill="1" layer="-1.00" shape="1647.129560,1133.912010 1662.115774,1121.235335 1652.928360,1110.445870 1647.807648,1114.780335 1643.327098,1109.514702 1645.215493,1107.925337 1628.933731,1088.812583 1633.755007,1084.734965 1635.205130,1086.425103 1643.084298,1079.742934 1633.799319,1068.857184 1632.350187,1070.083918 1609.327886,1089.482531 1617.374727,1098.936857 1647.129560,1133.912010"/>
    <poly id="157841519" type="building.dormitory" color="255,230,230" fill="1" layer="-1.00" shape="1604.661238,1051.537108 1587.857670,1031.988790 1586.158092,1033.437050 1582.842368,1029.572359 1588.734700,1024.539088 1578.070726,1012.127457 1561.578049,1026.222659 1590.753120,1060.185264 1601.084648,1072.209364 1617.689215,1058.031887 1624.705565,1052.107737 1615.967907,1041.946131 1614.203802,1039.967911 1607.322295,1045.842168 1609.021243,1047.811849 1604.661238,1051.537108"/>
    <poly id="157841520" type="building.hospital" color="255,230,230" fill="1" layer="-1.00" shape="1618.021783,997.698677 1677.079085,949.254038 1666.204871,936.082421 1607.147502,984.527177 1618.021783,997.698677"/>
    <poly id="157841521" type="building.yes" color="255,230,230" fill="1" layer="-1.00" shape="1798.055315,1021.299874 1807.175184,1032.025464 1817.375207,1023.391919 1808.262538,1012.666027 1798.055315,1021.299874"/>
    <poly id="157841522" type="building.apartments" color="255,230,230" fill="1" layer="-1.00" shape="1742.798862,1133.173714 1772.108454,1122.632299 1768.166695,1111.722834 1738.857048,1122.264269 1742.798862,1133.173714"/>
    <poly id="157841523" type="building.yes" color="255,230,230" fill="1" layer="-1.00" shape="1825.828901,948.095388 1849.401604,981.391673 1860.870116,973.320057 1837.297458,940.023724 1825.828901,948.095388"/>
    <poly id="157841524" type="building.apartments" color="255,230,230" fill="1" layer="-1.00" shape="1784.505900,1116.015353 1807.937845,1113.044985 1819.817214,1111.503236 1818.293659,1099.283945 1782.887126,1103.577193 1784.505900,1116.015353"/>
    <poly id="157862555" type="building.university" color="255,230,230" fill="1" layer="-1.00" shape="1780.956759,741.267538 1792.802024,755.491784 1803.553757,746.591356 1801.851704,744.543805 1819.827247,729.666757 1821.650105,731.854236 1832.283225,723.047660 1820.324390,708.683120 1780.956759,741.267538"/>
    <poly id="157862556" type="building.yes" color="255,230,230" fill="1" layer="-1.00" shape="1775.125074,691.578359 1779.871196,697.178668 1782.164033,695.250398 1785.603250,699.321827 1782.201447,702.340771 1787.568860,708.350544 1790.803830,705.482978 1799.488183,698.201242 1776.818886,671.348656 1768.134957,678.641543 1768.262959,678.781178 1764.764568,681.726045 1769.995280,687.919379 1773.493669,684.974515 1777.431851,689.638400 1775.125074,691.578359"/>
    <poly id="157862557" type="amenity.school" color="237,199,199" fill="1" layer="-1.00" shape="1773.334593,839.799459 1774.115753,841.148875 1758.526260,850.097287 1763.786957,859.217451 1780.454058,849.658352 1779.541362,848.080374 1783.230593,845.951769 1786.920864,852.351175 1788.843251,851.250378 1796.479208,864.495491 1794.838263,865.429215 1798.629071,872.002755 1781.560548,881.789316 1786.821621,890.920616 1809.973767,877.640969 1811.915844,881.014951 1820.104854,876.313590 1790.281199,824.595856 1782.063808,829.309523 1784.439144,833.434439 1773.334593,839.799459"/>
    <poly id="157862557#1" type="building.school" color="255,230,230" fill="1" layer="-1.00" shape="1773.334593,839.799459 1774.115753,841.148875 1758.526260,850.097287 1763.786957,859.217451 1780.454058,849.658352 1779.541362,848.080374 1783.230593,845.951769 1786.920864,852.351175 1788.843251,851.250378 1796.479208,864.495491 1794.838263,865.429215 1798.629071,872.002755 1781.560548,881.789316 1786.821621,890.920616 1809.973767,877.640969 1811.915844,881.014951 1820.104854,876.313590 1790.281199,824.595856 1782.063808,829.309523 1784.439144,833.434439 1773.334593,839.799459"/>
    <poly id="157862558" type="amenity.school" color="237,199,199" fill="1" layer="-1.00" shape="1687.799785,843.762594 1697.426583,838.090846 1681.039017,810.910520 1695.783087,802.073492 1690.153382,792.734284 1674.354565,802.214538 1661.144675,780.318431 1681.283839,768.238202 1676.186564,759.790723 1657.230218,771.189253 1659.026603,774.157063 1637.568382,787.113793 1645.153554,799.614818 1658.396490,791.605686 1665.718960,803.660739 1655.619529,809.763300 1664.998786,825.176582 1673.240978,820.183413 1678.666902,829.107658 1666.085809,836.734115 1675.063618,851.473142 1687.799785,843.762594"/>
    <poly id="157862558#1" type="building.school" color="255,230,230" fill="1" layer="-1.00" shape="1687.799785,843.762594 1697.426583,838.090846 1681.039017,810.910520 1695.783087,802.073492 1690.153382,792.734284 1674.354565,802.214538 1661.144675,780.318431 1681.283839,768.238202 1676.186564,759.790723 1657.230218,771.189253 1659.026603,774.157063 1637.568382,787.113793 1645.153554,799.614818 1658.396490,791.605686 1665.718960,803.660739 1655.619529,809.763300 1664.998786,825.176582 1673.240978,820.183413 1678.666902,829.107658 1666.085809,836.734115 1675.063618,851.473142 1687.799785,843.762594"/>
    <poly id="157862559" type="building.yes" color="255,230,230" fill="1" layer="-1.00" shape="1730.109128,685.778015 1764.014439,727.101534 1779.472652,714.484429 1745.560205,673.161101 1730.109128,685.778015"/>
    <poly id="157862560" type="building.yes" color="255,230,230" fill="1" layer="-1.00" shape="1821.400184,809.707641 1849.312058,843.076154 1869.278480,826.472295 1861.065926,816.289405 1841.373410,793.092278 1821.400184,809.707641"/>
    <poly id="157862561" type="building.yes" color="255,230,230" fill="1" layer="-1.00" shape="1742.136866,899.001368 1747.438140,907.151308 1756.354421,901.363224 1751.054042,893.235507 1742.136866,899.001368"/>
    <poly id="157862562" type="building.yes" color="255,230,230" fill="0" layer="-1.00" shape="1893.927747,816.595885 1892.034918,814.277571 1904.913439,803.800862 1908.471110,800.898259 1910.658977,803.572234"/>
    <poly id="157862563" type="building.yes" color="255,230,230" fill="1" layer="-1.00" shape="1861.065926,816.289405 1870.438192,827.561726 1904.472216,799.409670 1895.100425,788.148406 1861.065926,816.289405"/>
    <poly id="157862564" type="building.school" color="255,230,230" fill="1" layer="-1.00" shape="1773.639000,890.855447 1781.852635,886.230976 1780.094184,883.128023 1771.823904,887.777018 1753.424142,856.535066 1744.394384,861.826674 1774.357711,912.703620 1783.387405,907.412061 1773.639000,890.855447"/>
    <poly id="157862565" type="building.yes" color="255,230,230" fill="1" layer="-1.00" shape="1749.095507,927.971248 1764.476005,930.420406 1766.368046,918.610642 1718.734038,911.044385 1716.848844,922.842767 1732.142203,925.273040 1731.461057,930.955850 1748.495646,932.982824 1749.095507,927.971248"/>
    <poly id="160463309" type="amenity.fountain" color="237,199,199" fill="1" layer="-1.00" shape="2187.678721,1244.607590 2198.082730,1267.740750 2180.265669,1275.707738 2169.868783,1252.574324 2187.678721,1244.607590"/>
    <poly id="160463309#1" type="landuse.reservoir" color="194,194,130" fill="1" layer="-3.00" shape="2187.678721,1244.607590 2198.082730,1267.740750 2180.265669,1275.707738 2169.868783,1252.574324 2187.678721,1244.607590"/>
    <poly id="161625217" type="building.apartments" color="255,230,230" fill="1" layer="-1.00" shape="902.506417,1156.630016 911.209096,1166.424548 951.756887,1130.590754 943.047046,1120.796445 902.506417,1156.630016"/>
    <poly id="161625218" type="building.apartments" color="255,230,230" fill="1" layer="-1.00" shape="925.490760,1185.704329 934.937003,1176.809670 959.834067,1203.113377 950.387837,1212.007993 925.490760,1185.704329"/>
    <poly id="161625219" type="building.apartments" color="255,230,230" fill="1" layer="-1.00" shape="893.058739,1067.862995 882.684004,1077.496245 920.923887,1117.049393 923.826271,1114.706689 931.814665,1108.074720 893.058739,1067.862995"/>
    <poly id="161625220" type="building.apartments" color="255,230,230" fill="1" layer="-1.00" shape="848.683515,1106.143758 859.196323,1096.003912 878.501908,1115.917686 897.461924,1135.477937 886.949135,1145.617709 848.683515,1106.143758"/>
    <poly id="161625281" type="building.kindergarten" color="255,230,230" fill="1" layer="-1.00" shape="855.076175,1033.677132 856.112909,1032.767270 859.838890,1036.971412 862.196951,1034.884244 869.392413,1043.002193 867.013226,1045.101337 871.545924,1050.208428 867.518124,1053.765166 868.943825,1055.378158 865.486547,1058.433349 863.736537,1056.454792 859.674128,1060.046320 844.536646,1042.971910 849.183959,1038.878245 848.561588,1037.722999 848.351383,1036.428802 848.580697,1035.139295 849.226102,1033.989015 850.214278,1033.125628 851.425653,1032.620716 852.741097,1032.556977 854.008717,1032.918218 855.076175,1033.677132"/>
    <poly id="161625282" type="building.yes" color="255,230,230" fill="1" layer="-1.00" shape="826.048215,999.200155 815.373795,1009.624854 830.712082,1025.232692 841.386050,1014.796908 826.048215,999.200155"/>
    <poly id="161625283" type="building.apartments" color="255,230,230" fill="1" layer="-1.00" shape="745.766683,1164.836456 737.683549,1155.774450 808.182251,1093.256880 816.265786,1102.330107 745.766683,1164.836456"/>
    <poly id="161625311" type="building.yes" color="255,230,230" fill="1" layer="-1.00" shape="510.505600,1070.068501 502.006844,1079.772120 546.631903,1118.632841 555.137856,1108.929004 510.505600,1070.068501"/>
    <poly id="161625313" type="building.yes" color="255,230,230" fill="1" layer="-1.00" shape="565.106814,1097.630187 554.915985,1088.641696 600.355588,1037.412170 610.545978,1046.389631 565.106814,1097.630187"/>
    <poly id="161625314" type="building.apartments" color="255,230,230" fill="1" layer="-1.00" shape="661.683512,923.545309 671.934112,914.050201 708.419153,953.238050 698.168576,962.733091 661.683512,923.545309"/>
    <poly id="161625315" type="building.apartments" color="255,230,230" fill="1" layer="-1.00" shape="497.298967,1040.993768 507.949291,1049.941490 552.094925,997.694577 541.437396,988.747056 497.298967,1040.993768"/>
    <poly id="161625316" type="building.yes" color="255,230,230" fill="1" layer="-1.00" shape="458.405570,1036.640012 449.537899,1029.046035 460.349029,1016.477470 469.216702,1024.071465 458.405570,1036.640012"/>
    <poly id="161625317" type="building.apartments" color="255,230,230" fill="1" layer="-1.00" shape="576.402201,952.900170 585.073676,943.724180 613.416318,970.389513 604.737210,979.554630 576.402201,952.900170"/>
    <poly id="161625318" type="building.apartments" color="255,230,230" fill="1" layer="-1.00" shape="635.875583,929.432487 626.376315,938.262990 672.523399,987.618276 682.022642,978.787853 635.875583,929.432487"/>
    <poly id="161625319" type="building.apartments" color="255,230,230" fill="1" layer="-1.00" shape="559.193502,970.645619 549.964458,980.823725 593.511143,1020.084312 602.740189,1009.906280 559.193502,970.645619"/>
    <poly id="161625376" type="amenity.university" color="237,199,199" fill="1" layer="-1.00" shape="378.194538,1181.471387 389.481365,1174.494826 394.309207,1182.284003 424.325709,1163.735221 432.432227,1176.781622 424.715706,1181.555336 423.129795,1179.002533 413.747455,1184.800491 417.243107,1190.438654 408.788104,1195.653923 404.084251,1188.082435 388.341605,1197.809371 378.194538,1181.471387"/>
    <poly id="161625376#1" type="building.yes" color="255,230,230" fill="1" layer="-1.00" shape="378.194538,1181.471387 389.481365,1174.494826 394.309207,1182.284003 424.325709,1163.735221 432.432227,1176.781622 424.715706,1181.555336 423.129795,1179.002533 413.747455,1184.800491 417.243107,1190.438654 408.788104,1195.653923 404.084251,1188.082435 388.341605,1197.809371 378.194538,1181.471387"/>
    <poly id="161625550" type="leisure.pitch" color="207,245,201" fill="1" layer="-2.00" shape="850.204209,705.437967 792.884878,626.534718 787.035724,610.313563 787.566144,596.743050 801.580656,580.484493 815.655853,574.566437 827.104179,574.464877 837.616496,577.974575 903.896970,666.640248 908.623553,680.735376 908.438197,693.935798 903.810544,703.394872 895.487993,710.151530 881.491389,717.847592 870.388704,717.578970 859.172235,714.464784 850.204209,705.437967"/>
    <poly id="161625550#1" type="sport.soccer" color="79,230,125" fill="1" layer="-2.00" shape="850.204209,705.437967 792.884878,626.534718 787.035724,610.313563 787.566144,596.743050 801.580656,580.484493 815.655853,574.566437 827.104179,574.464877 837.616496,577.974575 903.896970,666.640248 908.623553,680.735376 908.438197,693.935798 903.810544,703.394872 895.487993,710.151530 881.491389,717.847592 870.388704,717.578970 859.172235,714.464784 850.204209,705.437967"/>
    <poly id="161625691" type="building.yes" color="255,230,230" fill="1" layer="-1.00" shape="592.589124,742.866357 559.746274,757.997875 555.906865,749.712499 578.636559,739.238816 569.009781,718.448548 530.346967,736.273752 522.928031,720.260433 556.640407,704.715348 555.560423,702.387180 570.609844,695.449697 592.589124,742.866357"/>
    <poly id="161625692" type="amenity.school" color="237,199,199" fill="1" layer="-1.00" shape="528.300532,788.048076 545.216967,781.336334 547.714718,787.593483 542.886206,789.501382 562.902173,839.690826 585.178266,830.849648 580.126756,818.192833 578.878952,818.688130 571.384938,799.894416 595.299189,790.408766 602.561004,808.621733 596.123291,811.172945 615.658290,860.157130 602.655777,865.320294 593.072789,841.299564 586.755586,843.801431 588.525018,848.239612 575.933337,853.230523 574.339898,849.230635 567.888310,851.793574 572.860352,864.264293 560.630560,869.118286 528.300532,788.048076"/>
    <poly id="161625692#1" type="building.yes" color="255,230,230" fill="1" layer="-1.00" shape="528.300532,788.048076 545.216967,781.336334 547.714718,787.593483 542.886206,789.501382 562.902173,839.690826 585.178266,830.849648 580.126756,818.192833 578.878952,818.688130 571.384938,799.894416 595.299189,790.408766 602.561004,808.621733 596.123291,811.172945 615.658290,860.157130 602.655777,865.320294 593.072789,841.299564 586.755586,843.801431 588.525018,848.239612 575.933337,853.230523 574.339898,849.230635 567.888310,851.793574 572.860352,864.264293 560.630560,869.118286 528.300532,788.048076"/>
    <poly id="161625693" type="building.yes" color="255,230,230" fill="1" layer="-1.00" shape="482.310579,788.721064 478.331520,779.828993 505.887177,767.569597 509.866197,776.461687 482.310579,788.721064"/>
    <poly id="161625694" type="building.yes" color="255,230,230" fill="1" layer="-1.00" shape="555.207079,779.722753 559.832738,790.915860 578.370190,783.315445 573.751312,772.110919 555.207079,779.722753"/>
    <poly id="161625696" type="building.yes" color="255,230,230" fill="1" layer="-1.00" shape="500.202003,754.203417 472.374051,766.139743 462.567844,743.397347 466.653404,741.641606 450.279807,703.653474 474.022453,693.472773 500.202003,754.203417"/>
    <poly id="161625698" type="building.yes" color="255,230,230" fill="1" layer="-1.00" shape="539.216762,852.006492 529.598773,862.189062 497.635862,832.195491 486.215480,821.474996 495.833027,811.281234 539.216762,852.006492"/>
    <poly id="161630997" type="building.yes" color="255,230,230" fill="1" layer="-1.00" shape="595.871790,1420.781053 613.485047,1436.018819 620.431451,1428.025240 612.225448,1420.927827 667.972739,1356.861107 658.565472,1348.720634 595.871790,1420.781053"/>
    <poly id="161631131" type="building.apartments" color="255,230,230" fill="1" layer="-1.00" shape="1312.553449,1317.348068 1322.290866,1303.109640 1311.379221,1295.684993 1309.589323,1298.294820 1282.739988,1280.039012 1284.604094,1277.303748 1273.248502,1269.585159 1263.422101,1283.938564 1312.553449,1317.348068"/>